* Zener 12V
.MODEL 1N5245B D 
+ IS = 3.566E-14 
+ N = 1.131 
+ BV = 11.98 
+ IBV = 0.001 
+ RS = 0.1756 
+ CJO = 1.063E-10 
+ VJ = 0.5921 
+ M = 0.3312 
+ FC = 0.5 
.ENDS
*