* Zener 18V
.MODEL 1N5248B  D 
+ IS = 3.566E-14 
+ N = 1.131 
+ BV = 17.94 
+ IBV = 0.001 
+ RS = 0.1756 
+ CJO = 6.806E-11 
+ VJ = 0.6566 
+ M = 0.3373 
+ FC = 0.5 
.ENDS
*