Version 4
SymbolType CELL
LINE Normal -16 0 -48 0
LINE Normal -7 24 -7 40
LINE Normal -7 -25 -7 -40
LINE Normal -7 16 -7 -16
LINE Normal 32 48 32 -48
LINE Normal 32 32 -7 32
LINE Normal 32 -32 -7 -32
LINE Normal 16 0 -7 0
LINE Normal 16 32 16 0
LINE Normal 8 -8 -7 0
LINE Normal 8 7 8 -8
LINE Normal -7 0 8 7
LINE Normal 40 -9 23 -9
LINE Normal 23 8 32 -9
LINE Normal 40 8 23 8
LINE Normal 32 -9 40 8
LINE Normal -16 32 -16 -32
CIRCLE Normal -39 48 56 -48
WINDOW 0 64 -48 Left 2
WINDOW 3 64 32 Left 2
SYMATTR Value IRF540
SYMATTR Prefix X
SYMATTR SpiceModel ..\sym\ZZZ\MOS\IRF\LIB\irf540.spi
SYMATTR Value2 IRF540
SYMATTR Description IRF540
PIN 32 -48 NONE 0
PINATTR PinName C
PINATTR SpiceOrder 1
PIN -48 0 NONE 0
PINATTR PinName G
PINATTR SpiceOrder 2
PIN 32 48 NONE 0
PINATTR PinName E
PINATTR SpiceOrder 3
