.model IRFP240 NMOS LEVEL=3 VTO=3.76 KP=20.79U RD=75.29M 
+      RS=20.68M IS=2.9P CBD=1.933N 
+      CGSO=1.457N CGDO=317.1P
.ends