.MODEL 2SC2240 NPN (IS=1.32133E-13 NF=1.00637 VAF=297.325 IKF=0.155303 ISE=3.90472f NE=1.33344 BR=7.41092 NR=1.0535 VAR=12.2874 IKR=0.552266 ISC=6.17974E-14 NC=1.01042 RB=1E-06 RE=0.0662541 EG=1.11 XTI=3 CJE=3.86068E-11 VJE=0.7132 MJE=0.36586 VJC=0.379984 MJC=0.307996 FC=0.5 BF=4.539950E+02 CJC=8.22821p RC=8.343630E-01 TF=2.756641n TR=28n XTF=1)
