.model IRFP9240 PMOS LEVEL=3 VTO=-3.828 KP=10.65U UO=300 
+      RD=279.3M RS=76.83M IS=2.08P 
+      N=2 CBD=1.534N CGSO=961.9P CGDO=138.4P
.ends