* Spice Model
* JFE150
* Part: JFE150
* Date: 28NOV2022
.model NJFE150 NJF (BETA=31m BETATCE=.5 VTO=-975m VTOTC=2.5m LAMBDA=16.95m RD=3.5 RS=4.2 N=1 M=0.33 PB=0.705 IS=5.34f CGD=6.3p CGS=20.3p AF=1 KF=3.25e-18 FC=0.5)