* PSpice Model Editor - Version 9.2
*$
******* Discrete Bipolar Electrical Circuit Model *******
** Product: KSA992
** Package: TO-92
** PNP Epitaxial Silicon Transistor
** Complement to KSC1845
**-------------------------------------------------------
.MODEL KSA992 pnp (                                 
+ IS=4.0544E-13      BF=365.1           NF=1
+ BR=0.20            NR=1.0             ISE=4.0544E-14
+ NE=1.5             ISC=1.0378E-13     NC=1.5
+ VAF=13             VAR=100            IKF=36.498
+ IKR=0.0225         RB=186              RBM=1.04
+ IRB=1.0125E-6      RE=0.0044          RC=0.048
+ CJE=2.3093E-11     VJE=0.855          MJE=0.4404
+ FC=0.5             CJC=6.8251E-12     VJC=0.64
+ MJC=0.2897         XTB=1.2849         EG=1.1603
+ XTI=3              TF=5.86e-10        XTF=4.0
+ ITF=0.024          VTF=4.0            TR=1.0e-8)
**-------------------------------------------------------
** Creation: Apr.-22-2016   Rev:1.0
** Fairchild Semiconductor
*$
