*$
***** Power Bipolar Transistor Electrical Parameter *****
** Product: KSC1845
** NPN Epitaxial Silicon Transistor
** Package: TO-92
** Complement to KSA992
**-------------------------------------------------------
.MODEL KSC1845 npn    (            
+ IS=5.075431E-13     BF=620.7            NF=1                  
+ BR=0.365            NR=1                ISE=1.68107E-12       
+ NE=2.0              ISC=1.8378E-12      NC=1.5                
+ VAF=82.803          VAR=100             IKF=0.20596             
+ IKR=0.0190546       RB=107              RBM=0.292              
+ IRB=1.258925E-6     RE=0.15             RC=0.28
+ CJE=1.10447E-11     VJE=0.7300286       MJE=0.1619943          
+ FC=0.5              CJC=5.625739E-12    VJC=0.45                
+ MJC=0.3059045       XTB=1.7281          EG=1.1809             
+ XTI=3               TF=1.108e-9         XTF=2.250
+ ITF=0.0044          VTF=4.0             TR=1.0e-8)
**-------------------------------------------------------
* Creation: Apr.-25-2016  Rev: 1.0 
* Fairchild Semiconductor
*$

